<?xml version="1.0" encoding="UTF-8"?>
<!-- generated on 2021-04-16 15:42:48.217666 by randomTrips.py v1.6.0-0000000000
  options: <doubleminus>flows 100 -b 0 -e 1 -n manhattan.net.xml -o manhattan.flow.xml <doubleminus>jtrrouter <doubleminus>trip-attributes departPos="random" departSpeed="max"
-->
<routes xmlns:xsi="http://www.w3.org/2001/XMLSchema-instance" xsi:noNamespaceSchemaLocation="http://sumo.dlr.de/xsd/routes_file.xsd">
    <flow id="0" begin="0.0" end="1.0" period="100" from="E2E3" departPos="random" departSpeed="max"/>
    <flow id="1" begin="0.0" end="1.0" period="100" from="A4A3" departPos="random" departSpeed="max"/>
    <flow id="2" begin="0.0" end="1.0" period="100" from="B3B4" departPos="random" departSpeed="max"/>
    <flow id="3" begin="0.0" end="1.0" period="100" from="E0E1" departPos="random" departSpeed="max"/>
    <flow id="4" begin="0.0" end="1.0" period="100" from="E4F4" departPos="random" departSpeed="max"/>
    <flow id="5" begin="0.0" end="1.0" period="100" from="F5F4" departPos="random" departSpeed="max"/>
    <flow id="6" begin="0.0" end="1.0" period="100" from="B3B2" departPos="random" departSpeed="max"/>
    <flow id="7" begin="0.0" end="1.0" period="100" from="C3C4" departPos="random" departSpeed="max"/>
    <flow id="8" begin="0.0" end="1.0" period="100" from="E2E1" departPos="random" departSpeed="max"/>
    <flow id="9" begin="0.0" end="1.0" period="100" from="C3B3" departPos="random" departSpeed="max"/>
    <flow id="10" begin="0.0" end="1.0" period="100" from="A3A2" departPos="random" departSpeed="max"/>
    <flow id="11" begin="0.0" end="1.0" period="100" from="D5E5" departPos="random" departSpeed="max"/>
    <flow id="12" begin="0.0" end="1.0" period="100" from="F2F3" departPos="random" departSpeed="max"/>
    <flow id="13" begin="0.0" end="1.0" period="100" from="E4E3" departPos="random" departSpeed="max"/>
    <flow id="14" begin="0.0" end="1.0" period="100" from="A5B5" departPos="random" departSpeed="max"/>
    <flow id="15" begin="0.0" end="1.0" period="100" from="C0B0" departPos="random" departSpeed="max"/>
    <flow id="16" begin="0.0" end="1.0" period="100" from="E3E4" departPos="random" departSpeed="max"/>
    <flow id="17" begin="0.0" end="1.0" period="100" from="F4F3" departPos="random" departSpeed="max"/>
    <flow id="18" begin="0.0" end="1.0" period="100" from="D4C4" departPos="random" departSpeed="max"/>
    <flow id="19" begin="0.0" end="1.0" period="100" from="A0A1" departPos="random" departSpeed="max"/>
    <flow id="20" begin="0.0" end="1.0" period="100" from="C0B0" departPos="random" departSpeed="max"/>
    <flow id="21" begin="0.0" end="1.0" period="100" from="F1F0" departPos="random" departSpeed="max"/>
    <flow id="22" begin="0.0" end="1.0" period="100" from="E0E1" departPos="random" departSpeed="max"/>
    <flow id="23" begin="0.0" end="1.0" period="100" from="B2C2" departPos="random" departSpeed="max"/>
    <flow id="24" begin="0.0" end="1.0" period="100" from="F2E2" departPos="random" departSpeed="max"/>
    <flow id="25" begin="0.0" end="1.0" period="100" from="B4A4" departPos="random" departSpeed="max"/>
    <flow id="26" begin="0.0" end="1.0" period="100" from="E0E1" departPos="random" departSpeed="max"/>
    <flow id="27" begin="0.0" end="1.0" period="100" from="B5C5" departPos="random" departSpeed="max"/>
    <flow id="28" begin="0.0" end="1.0" period="100" from="C3C2" departPos="random" departSpeed="max"/>
    <flow id="29" begin="0.0" end="1.0" period="100" from="D1E1" departPos="random" departSpeed="max"/>
    <flow id="30" begin="0.0" end="1.0" period="100" from="D3D4" departPos="random" departSpeed="max"/>
    <flow id="31" begin="0.0" end="1.0" period="100" from="C4C3" departPos="random" departSpeed="max"/>
    <flow id="32" begin="0.0" end="1.0" period="100" from="C3C2" departPos="random" departSpeed="max"/>
    <flow id="33" begin="0.0" end="1.0" period="100" from="F3F4" departPos="random" departSpeed="max"/>
    <flow id="34" begin="0.0" end="1.0" period="100" from="F4E4" departPos="random" departSpeed="max"/>
    <flow id="35" begin="0.0" end="1.0" period="100" from="F3E3" departPos="random" departSpeed="max"/>
    <flow id="36" begin="0.0" end="1.0" period="100" from="F4F5" departPos="random" departSpeed="max"/>
    <flow id="37" begin="0.0" end="1.0" period="100" from="F4E4" departPos="random" departSpeed="max"/>
    <flow id="38" begin="0.0" end="1.0" period="100" from="D4C4" departPos="random" departSpeed="max"/>
    <flow id="39" begin="0.0" end="1.0" period="100" from="B4A4" departPos="random" departSpeed="max"/>
    <flow id="40" begin="0.0" end="1.0" period="100" from="D0E0" departPos="random" departSpeed="max"/>
    <flow id="41" begin="0.0" end="1.0" period="100" from="C4C3" departPos="random" departSpeed="max"/>
    <flow id="42" begin="0.0" end="1.0" period="100" from="E1E2" departPos="random" departSpeed="max"/>
    <flow id="43" begin="0.0" end="1.0" period="100" from="A1B1" departPos="random" departSpeed="max"/>
    <flow id="44" begin="0.0" end="1.0" period="100" from="B0B1" departPos="random" departSpeed="max"/>
    <flow id="45" begin="0.0" end="1.0" period="100" from="A1A0" departPos="random" departSpeed="max"/>
    <flow id="46" begin="0.0" end="1.0" period="100" from="D3E3" departPos="random" departSpeed="max"/>
    <flow id="47" begin="0.0" end="1.0" period="100" from="D3D4" departPos="random" departSpeed="max"/>
    <flow id="48" begin="0.0" end="1.0" period="100" from="B1A1" departPos="random" departSpeed="max"/>
    <flow id="49" begin="0.0" end="1.0" period="100" from="F2E2" departPos="random" departSpeed="max"/>
    <flow id="50" begin="0.0" end="1.0" period="100" from="D1C1" departPos="random" departSpeed="max"/>
    <flow id="51" begin="0.0" end="1.0" period="100" from="E3E4" departPos="random" departSpeed="max"/>
    <flow id="52" begin="0.0" end="1.0" period="100" from="C5C4" departPos="random" departSpeed="max"/>
    <flow id="53" begin="0.0" end="1.0" period="100" from="B4A4" departPos="random" departSpeed="max"/>
    <flow id="54" begin="0.0" end="1.0" period="100" from="C5C4" departPos="random" departSpeed="max"/>
    <flow id="55" begin="0.0" end="1.0" period="100" from="E3E2" departPos="random" departSpeed="max"/>
    <flow id="56" begin="0.0" end="1.0" period="100" from="B4B5" departPos="random" departSpeed="max"/>
    <flow id="57" begin="0.0" end="1.0" period="100" from="C4D4" departPos="random" departSpeed="max"/>
    <flow id="58" begin="0.0" end="1.0" period="100" from="C4C3" departPos="random" departSpeed="max"/>
    <flow id="59" begin="0.0" end="1.0" period="100" from="E0D0" departPos="random" departSpeed="max"/>
    <flow id="60" begin="0.0" end="1.0" period="100" from="E2F2" departPos="random" departSpeed="max"/>
    <flow id="61" begin="0.0" end="1.0" period="100" from="D2C2" departPos="random" departSpeed="max"/>
    <flow id="62" begin="0.0" end="1.0" period="100" from="C5C4" departPos="random" departSpeed="max"/>
    <flow id="63" begin="0.0" end="1.0" period="100" from="A3B3" departPos="random" departSpeed="max"/>
    <flow id="64" begin="0.0" end="1.0" period="100" from="A1A0" departPos="random" departSpeed="max"/>
    <flow id="65" begin="0.0" end="1.0" period="100" from="B3A3" departPos="random" departSpeed="max"/>
    <flow id="66" begin="0.0" end="1.0" period="100" from="B4B3" departPos="random" departSpeed="max"/>
    <flow id="67" begin="0.0" end="1.0" period="100" from="C1B1" departPos="random" departSpeed="max"/>
    <flow id="68" begin="0.0" end="1.0" period="100" from="E3E4" departPos="random" departSpeed="max"/>
    <flow id="69" begin="0.0" end="1.0" period="100" from="B1B2" departPos="random" departSpeed="max"/>
    <flow id="70" begin="0.0" end="1.0" period="100" from="A1A0" departPos="random" departSpeed="max"/>
    <flow id="71" begin="0.0" end="1.0" period="100" from="F0F1" departPos="random" departSpeed="max"/>
    <flow id="72" begin="0.0" end="1.0" period="100" from="B4B3" departPos="random" departSpeed="max"/>
    <flow id="73" begin="0.0" end="1.0" period="100" from="B3B2" departPos="random" departSpeed="max"/>
    <flow id="74" begin="0.0" end="1.0" period="100" from="E5D5" departPos="random" departSpeed="max"/>
    <flow id="75" begin="0.0" end="1.0" period="100" from="F3F4" departPos="random" departSpeed="max"/>
    <flow id="76" begin="0.0" end="1.0" period="100" from="D2C2" departPos="random" departSpeed="max"/>
    <flow id="77" begin="0.0" end="1.0" period="100" from="A2B2" departPos="random" departSpeed="max"/>
    <flow id="78" begin="0.0" end="1.0" period="100" from="D4E4" departPos="random" departSpeed="max"/>
    <flow id="79" begin="0.0" end="1.0" period="100" from="C1C0" departPos="random" departSpeed="max"/>
    <flow id="80" begin="0.0" end="1.0" period="100" from="E5F5" departPos="random" departSpeed="max"/>
    <flow id="81" begin="0.0" end="1.0" period="100" from="E0D0" departPos="random" departSpeed="max"/>
    <flow id="82" begin="0.0" end="1.0" period="100" from="F5F4" departPos="random" departSpeed="max"/>
    <flow id="83" begin="0.0" end="1.0" period="100" from="D0D1" departPos="random" departSpeed="max"/>
    <flow id="84" begin="0.0" end="1.0" period="100" from="C5B5" departPos="random" departSpeed="max"/>
    <flow id="85" begin="0.0" end="1.0" period="100" from="E2F2" departPos="random" departSpeed="max"/>
    <flow id="86" begin="0.0" end="1.0" period="100" from="B2B1" departPos="random" departSpeed="max"/>
    <flow id="87" begin="0.0" end="1.0" period="100" from="E1E0" departPos="random" departSpeed="max"/>
    <flow id="88" begin="0.0" end="1.0" period="100" from="E3F3" departPos="random" departSpeed="max"/>
    <flow id="89" begin="0.0" end="1.0" period="100" from="B5C5" departPos="random" departSpeed="max"/>
    <flow id="90" begin="0.0" end="1.0" period="100" from="C1B1" departPos="random" departSpeed="max"/>
    <flow id="91" begin="0.0" end="1.0" period="100" from="A2B2" departPos="random" departSpeed="max"/>
    <flow id="92" begin="0.0" end="1.0" period="100" from="B2C2" departPos="random" departSpeed="max"/>
    <flow id="93" begin="0.0" end="1.0" period="100" from="D0D1" departPos="random" departSpeed="max"/>
    <flow id="94" begin="0.0" end="1.0" period="100" from="B1C1" departPos="random" departSpeed="max"/>
    <flow id="95" begin="0.0" end="1.0" period="100" from="C0D0" departPos="random" departSpeed="max"/>
    <flow id="96" begin="0.0" end="1.0" period="100" from="E2E3" departPos="random" departSpeed="max"/>
    <flow id="97" begin="0.0" end="1.0" period="100" from="B0C0" departPos="random" departSpeed="max"/>
    <flow id="98" begin="0.0" end="1.0" period="100" from="F0F1" departPos="random" departSpeed="max"/>
    <flow id="99" begin="0.0" end="1.0" period="100" from="C2C3" departPos="random" departSpeed="max"/>
</routes>
